REMARK  Name = 
REMARK  12 active torsions:
REMARK  status: ('A' for Active; 'I' for Inactive)
REMARK    1  A    between atoms: N_1  and  C_2
REMARK    2  A    between atoms: C_2  and  C_3
REMARK    3  A    between atoms: C_2  and  C_30
REMARK    4  A    between atoms: C_3  and  C_4
REMARK    5  A    between atoms: C_10  and  C_11
REMARK    6  A    between atoms: N_13  and  C_14
REMARK    7  A    between atoms: C_14  and  C_15
REMARK    8  A    between atoms: C_16  and  O_17
REMARK    9  A    between atoms: O_17  and  C_18
REMARK   10  A    between atoms: C_18  and  C_19
REMARK   11  A    between atoms: N_21  and  C_22
REMARK   12  A    between atoms: C_30  and  C_31
REMARK                            x       y       z     vdW  Elec       q    Type
REMARK                         _______ _______ _______ _____ _____    ______ ____
ROOT
ATOM      1  C   UNL     1       0.556  -3.468  -1.726  0.00  0.00    +0.000 C 
ATOM      2  O   UNL     1       1.470  -3.164  -2.540  0.00  0.00    +0.000 OA
ATOM      3  N   UNL     1       0.879  -4.145  -0.504  0.00  0.00    +0.000 N 
ATOM      4  H   UNL     1       0.101  -4.539   0.072  0.00  0.00    +0.000 HD
ENDROOT
BRANCH   1  11
ATOM      5  C   UNL     1      -1.072  -1.141  -0.296  0.00  0.00    +0.000 C 
ATOM      6  O   UNL     1      -1.037  -1.966   0.657  0.00  0.00    +0.000 OA
ATOM      7  N   UNL     1      -1.007  -1.621  -1.655  0.00  0.00    +0.000 N 
ATOM      8  C   UNL     1      -1.155  -0.781  -2.834  0.00  0.00    +0.000 C 
ATOM      9  C   UNL     1      -1.050  -1.719  -4.031  0.00  0.00    +0.000 C 
ATOM     10  C   UNL     1      -1.233  -3.127  -3.472  0.00  0.00    +0.000 C 
ATOM     11  C   UNL     1      -0.864  -3.031  -1.991  0.00  0.00    +0.000 C 
BRANCH   5  12
ATOM     12  C   UNL     1      -1.191   0.325   0.034  0.00  0.00    +0.000 C 
BRANCH  12  13
ATOM     13  C   UNL     1      -2.569   0.664   0.643  0.00  0.00    +0.000 C 
BRANCH  13  14
ATOM     14  N   UNL     1      -3.647   0.482  -0.336  0.00  0.00    +0.000 NA
ATOM     15  H   UNL     1      -3.433   1.037  -1.196  0.00  0.00    +0.000 HD
ATOM     16  H   UNL     1      -3.699  -0.526  -0.608  0.00  0.00    +0.000 HD
ENDBRANCH  13  14
BRANCH  13  17
ATOM     17  C   UNL     1      -2.578   2.111   1.170  0.00  0.00    +0.000 C 
BRANCH  17  18
ATOM     18  C   UNL     1      -3.869   2.432   1.878  0.00  0.00    +0.000 A 
ATOM     19  C   UNL     1      -4.920   3.065   1.191  0.00  0.00    +0.000 A 
ATOM     20  C   UNL     1      -6.126   3.334   1.844  0.00  0.00    +0.000 A 
ATOM     21  C   UNL     1      -6.296   2.968   3.182  0.00  0.00    +0.000 A 
ATOM     22  C   UNL     1      -5.260   2.328   3.869  0.00  0.00    +0.000 A 
ATOM     23  C   UNL     1      -4.052   2.057   3.220  0.00  0.00    +0.000 A 
ENDBRANCH  17  18
ENDBRANCH  13  17
ENDBRANCH  12  13
ENDBRANCH   5  12
ENDBRANCH   1  11
BRANCH   3  24
ATOM     24  C   UNL     1       2.187  -4.011   0.134  0.00  0.00    +0.000 C 
BRANCH  24  25
ATOM     25  C   UNL     1       2.143  -2.895   1.147  0.00  0.00    +0.000 A 
ATOM     26  C   UNL     1       2.276  -1.548   0.746  0.00  0.00    +0.000 A 
ATOM     27  C   UNL     1       2.162  -0.528   1.712  0.00  0.00    +0.000 A 
ATOM     28  C   UNL     1       1.905  -0.843   3.048  0.00  0.00    +0.000 A 
ATOM     29  C   UNL     1       1.757  -2.175   3.438  0.00  0.00    +0.000 A 
ATOM     30 CL   UNL     1       1.417  -2.564   5.114  0.00  0.00    +0.000 Cl
ATOM     31  C   UNL     1       1.870  -3.196   2.492  0.00  0.00    +0.000 A 
BRANCH  26  32
ATOM     32  O   UNL     1       2.503  -1.263  -0.612  0.00  0.00    +0.000 OA
BRANCH  32  33
ATOM     33  C   UNL     1       2.583   0.041  -1.186  0.00  0.00    +0.000 C 
BRANCH  33  34
ATOM     34  C   UNL     1       3.881   0.698  -0.826  0.00  0.00    +0.000 C 
ATOM     35  O   UNL     1       4.960   0.068  -0.990  0.00  0.00    +0.000 OA
ATOM     36  N   UNL     1       3.898   2.042  -0.329  0.00  0.00    +0.000 N 
ATOM     37  H   UNL     1       2.994   2.541  -0.168  0.00  0.00    +0.000 HD
BRANCH  36  38
ATOM     38  C   UNL     1       5.139   2.678   0.103  0.00  0.00    +0.000 C 
ATOM     39  C   UNL     1       5.208   4.164  -0.201  0.00  0.00    +0.000 C 
ATOM     40  C   UNL     1       5.990   3.176  -1.053  0.00  0.00    +0.000 C 
ENDBRANCH  36  38
ENDBRANCH  33  34
ENDBRANCH  32  33
ENDBRANCH  26  32
ENDBRANCH  24  25
ENDBRANCH   3  24
TORSDOF 12
