Structure2
                    3D
 Schrodinger Suite 2022-2.
 68 72  0  0  1  0            999 V2000
   16.3560  100.4060   50.6140 C   0  0  0  0  0  0
   15.2180  100.0120   51.4140 C   0  0  0  0  0  0
   15.0890  100.4530   52.7980 C   0  0  0  0  0  0
   16.1380  101.2980   53.3390 C   0  0  0  0  0  0
   17.2200  101.6600   52.5430 N   0  0  0  0  0  0
   17.3560  101.2430   51.2150 C   0  0  0  0  0  0
   13.9280  100.0780   53.6730 C   0  0  0  0  0  0
   12.7230   99.4700   53.1730 C   0  0  0  0  0  0
   11.7040   99.1720   54.1140 C   0  0  0  0  0  0
   11.8810   99.4640   55.4560 N   0  0  0  0  0  0
   13.0530  100.0500   55.9070 C   0  0  0  0  0  0
   14.0460  100.3450   55.0230 N   0  0  0  0  0  0
   13.2630  100.3620   57.2530 N   0  0  0  0  0  0
   12.3020  100.1090   58.2460 C   0  0  0  0  0  0
   11.1950  101.0400   58.4880 C   0  0  0  0  0  0
   10.2510  100.7220   59.5240 C   0  0  0  0  0  0
   10.3860   99.5200   60.3090 C   0  0  0  0  0  0
   11.4560   98.6100   60.0860 C   0  0  0  0  0  0
   12.4240   98.9210   59.0320 C   0  0  0  0  0  0
   11.5160   97.4360   60.9230 N   0  0  0  0  0  0
   12.4460   96.4150   60.9100 C   0  0  0  0  0  0
   12.4720   95.4420   62.0420 C   0  0  0  0  0  0
   13.6890   94.6960   62.3640 C   0  0  0  0  0  0
   13.6820   93.7490   63.4490 C   0  0  0  0  0  0
   12.4630   93.5460   64.2140 C   0  0  0  0  0  0
   11.2740   94.3010   63.8790 C   0  0  0  0  0  0
   11.2720   95.2300   62.8170 C   0  0  0  0  0  0
   12.3710   92.5420   65.3680 C   0  0  0  0  0  0
   11.2300   91.5790   65.3640 N   0  0  0  0  0  0
   11.2140   90.7780   64.0930 C   0  0  0  0  0  0
   10.0310   89.7760   64.0670 C   0  0  0  0  0  0
   10.0810   88.8580   65.2780 N   0  0  0  0  0  0
    8.9850   87.8750   65.3060 C   0  0  0  0  0  0
   10.0700   89.6590   66.5720 C   0  0  0  0  0  0
   11.2730   90.6520   66.5740 C   0  0  0  0  0  0
   13.2580   96.2310   60.0240 O   0  0  0  0  0  0
   10.9860  102.3510   57.6940 C   0  0  0  0  0  0
   16.4385  100.0712   49.5905 H   0  0  0  0  0  0
   14.4501   99.3834   50.9879 H   0  0  0  0  0  0
   16.0786  101.6458   54.3597 H   0  0  0  0  0  0
   18.2170  101.5527   50.6412 H   0  0  0  0  0  0
   12.6221   99.2586   52.1187 H   0  0  0  0  0  0
   10.7826   98.7143   53.7854 H   0  0  0  0  0  0
   14.1324  100.7861   57.5434 H   0  0  0  0  0  0
    9.4247  101.3879   59.7246 H   0  0  0  0  0  0
    9.6667   99.2970   61.0832 H   0  0  0  0  0  0
   13.2397   98.2363   58.8527 H   0  0  0  0  0  0
   10.8123   97.2844   61.6315 H   0  0  0  0  0  0
   14.5888   94.8564   61.7887 H   0  0  0  0  0  0
   14.5781   93.1960   63.6889 H   0  0  0  0  0  0
   10.3660   94.1582   64.4461 H   0  0  0  0  0  0
   10.3738   95.7824   62.5836 H   0  0  0  0  0  0
   12.3785   93.0833   66.3141 H   0  0  0  0  0  0
   13.3068   91.9870   65.4343 H   0  0  0  0  0  0
   12.1530   90.2332   63.9958 H   0  0  0  0  0  0
   11.1370   91.4524   63.2402 H   0  0  0  0  0  0
   10.0811   89.1788   63.1565 H   0  0  0  0  0  0
    9.0897   90.3256   64.0668 H   0  0  0  0  0  0
    9.0785   87.2510   66.1948 H   0  0  0  0  0  0
    8.0284   88.3971   65.3282 H   0  0  0  0  0  0
    9.0356   87.2482   64.4157 H   0  0  0  0  0  0
   10.1583   88.9800   67.4201 H   0  0  0  0  0  0
    9.1373   90.2184   66.6448 H   0  0  0  0  0  0
   11.2512   91.2464   67.4874 H   0  0  0  0  0  0
   12.2071   90.0903   66.5677 H   0  0  0  0  0  0
   10.0970  102.8622   58.0633 H   0  0  0  0  0  0
   11.8551  102.9963   57.8219 H   0  0  0  0  0  0
   10.8585  102.1195   56.6365 H   0  0  0  0  0  0
  1  2  2  0  0  0
  1  6  1  0  0  0
  1 38  1  0  0  0
  2  3  1  0  0  0
  2 39  1  0  0  0
  3  4  2  0  0  0
  3  7  1  0  0  0
  4  5  1  0  0  0
  4 40  1  0  0  0
  5  6  2  0  0  0
  6 41  1  0  0  0
  7  8  2  0  0  0
  7 12  1  0  0  0
  8  9  1  0  0  0
  8 42  1  0  0  0
  9 10  2  0  0  0
  9 43  1  0  0  0
 10 11  1  0  0  0
 11 12  2  0  0  0
 11 13  1  0  0  0
 13 14  1  0  0  0
 13 44  1  0  0  0
 14 15  2  0  0  0
 14 19  1  0  0  0
 15 16  1  0  0  0
 15 37  1  0  0  0
 16 17  2  0  0  0
 16 45  1  0  0  0
 17 18  1  0  0  0
 17 46  1  0  0  0
 18 19  2  0  0  0
 18 20  1  0  0  0
 19 47  1  0  0  0
 20 21  1  0  0  0
 20 48  1  0  0  0
 21 22  1  0  0  0
 21 36  2  0  0  0
 22 23  2  0  0  0
 22 27  1  0  0  0
 23 24  1  0  0  0
 23 49  1  0  0  0
 24 25  2  0  0  0
 24 50  1  0  0  0
 25 26  1  0  0  0
 25 28  1  0  0  0
 26 27  2  0  0  0
 26 51  1  0  0  0
 27 52  1  0  0  0
 28 29  1  0  0  0
 28 53  1  0  0  0
 28 54  1  0  0  0
 29 30  1  0  0  0
 29 35  1  0  0  0
 30 31  1  0  0  0
 30 55  1  0  0  0
 30 56  1  0  0  0
 31 32  1  0  0  0
 31 57  1  0  0  0
 31 58  1  0  0  0
 32 33  1  0  0  0
 32 34  1  0  0  0
 33 59  1  0  0  0
 33 60  1  0  0  0
 33 61  1  0  0  0
 34 35  1  0  0  0
 34 62  1  0  0  0
 34 63  1  0  0  0
 35 64  1  0  0  0
 35 65  1  0  0  0
 37 66  1  0  0  0
 37 67  1  0  0  0
 37 68  1  0  0  0
M  END
> <i_m_stars>
0

> <s_m_entry_id>
1

> <s_m_entry_name>
imatinib_2.1

> <s_pdb_PDB_TITLE>
CRYSTAL STRUCTURE OF THE C-ABL KINASE DOMAIN IN COMPLEX WITH STI-571.

> <s_pdb_PDB_ID>
1IEP

> <r_pdb_PDB_CRYST1_a>
112.885

> <r_pdb_PDB_CRYST1_b>
147.371

> <r_pdb_PDB_CRYST1_c>
153.442

> <r_pdb_PDB_CRYST1_alpha>
90

> <r_pdb_PDB_CRYST1_beta>
90

> <r_pdb_PDB_CRYST1_gamma>
90

> <s_pdb_PDB_CRYST1_Space_Group>
F 2 2 2

> <i_pdb_PDB_CRYST1_z>
32

> <s_pdb_PDB_CLASSIFICATION>
TRANSFERASE

> <s_pdb_PDB_DEPOSITION_DATE>
10-APR-01

> <s_pdb_PDB_format_version>
3.15

> <r_pdb_PDB_R>
0.231

> <r_pdb_PDB_Rfree>
0.262

> <r_pdb_PDB_RESOLUTION>
2.1

> <s_pdb_PDB_EXPDTA>
X-RAY DIFFRACTION

> <r_pdb_PDB_EXPDTA_TEMPERATURE>
103

> <r_pdb_PDB_EXPDTA_PH>
6.5

> <s_pdb_PDB_REMARK_350_Biomolecule_1_Transform_1_Chains>
A

> <s_pdb_PDB_REMARK_350_Biomolecule_1_Transform_1_Matrix_1>
1.000000 0.000000 0.000000   0.000000;0.000000 1.000000 0.000000   0.000000;0.000000 0.000000 1.000000   0.000000

> <s_pdb_PDB_REMARK_350_Biomolecule_2_Transform_1_Chains>
B

> <s_pdb_PDB_REMARK_350_Biomolecule_2_Transform_1_Matrix_1>
1.000000 0.000000 0.000000   0.000000;0.000000 1.000000 0.000000   0.000000;0.000000 0.000000 1.000000   0.000000

> <s_m_Source_Path>
D:\py_projects\virtual_lead_opt

> <s_m_Source_File>
imatinib_2.sdf

> <i_m_Source_File_Index>
1

$$$$
