REMARK  Name = 
REMARK  13 active torsions:
REMARK  status: ('A' for Active; 'I' for Inactive)
REMARK    1  A    between atoms: C_1  and  O_2
REMARK    2  A    between atoms: O_2  and  C_3
REMARK    3  A    between atoms: C_5  and  O_6
REMARK    4  A    between atoms: O_6  and  C_7
REMARK    5  A    between atoms: C_8  and  S_20
REMARK    6  A    between atoms: C_10  and  N_11
REMARK    7  A    between atoms: C_12  and  C_14
REMARK    8  A    between atoms: C_14  and  S_15
REMARK    9  A    between atoms: S_15  and  C_16
REMARK   10  A    between atoms: C_16  and  C_17
REMARK   11  A    between atoms: C_17  and  O_19
REMARK   12  A    between atoms: S_20  and  N_23
REMARK   13  A    between atoms: C_24  and  C_25
REMARK                            x       y       z     vdW  Elec       q    Type
REMARK                         _______ _______ _______ _____ _____    ______ ____
ROOT
ATOM      1  C   UNL     1      -0.695  -1.204   0.000  0.00  0.00    +0.000 A 
ATOM      2  C   UNL     1      -2.085  -1.204   0.000  0.00  0.00    +0.000 A 
ATOM      3  C   UNL     1      -2.780   0.000   0.000  0.00  0.00    +0.000 A 
ATOM      4  C   UNL     1      -2.085   1.204   0.000  0.00  0.00    +0.000 A 
ATOM      5  C   UNL     1      -0.695   1.204   0.000  0.00  0.00    +0.000 A 
ATOM      6  C   UNL     1       0.000   0.000   0.000  0.00  0.00    +0.000 A 
ENDROOT
BRANCH   6   7
ATOM      7  N   UNL     1       1.460   0.000   0.000  0.00  0.00    +0.000 N 
ATOM      8  C   UNL     1       2.234   1.020  -0.371  0.00  0.00    +0.000 C 
ATOM      9  O   UNL     1       1.782   2.092  -0.762  0.00  0.00    +0.000 OA
ATOM     10  H   UNL     1       1.789  -0.897   0.327  0.00  0.00    +0.000 HD
BRANCH   8  11
ATOM     11  C   UNL     1       3.692   0.687  -0.250  0.00  0.00    +0.000 C 
BRANCH  11  12
ATOM     12  S   UNL     1       4.612   2.169   0.103  0.00  0.00    +0.000 S 
BRANCH  12  13
ATOM     13  C   UNL     1       5.581   1.998  -1.380  0.00  0.00    +0.000 C 
BRANCH  13  14
ATOM     14  C   UNL     1       6.557   3.134  -1.473  0.00  0.00    +0.000 C 
ATOM     15  O   UNL     1       6.642   3.972  -2.363  0.00  0.00    +0.000 OA
BRANCH  14  16
ATOM     16  O   UNL     1       7.376   3.112  -0.390  0.00  0.00    +0.000 OA
ATOM     17  H   UNL     1       7.984   3.830  -0.461  0.00  0.00    +0.000 HD
ENDBRANCH  14  16
ENDBRANCH  13  14
ENDBRANCH  12  13
ENDBRANCH  11  12
ENDBRANCH   8  11
ENDBRANCH   6   7
BRANCH   4  18
ATOM     18  S   UNL     1      -2.975   2.745   0.000  0.00  0.00    +0.000 S 
ATOM     19  O   UNL     1      -4.143   2.584   0.873  0.00  0.00    +0.000 OA
ATOM     20  O   UNL     1      -2.000   3.821   0.210  0.00  0.00    +0.000 OA
BRANCH  18  21
ATOM     21  N   UNL     1      -3.553   2.870  -1.636  0.00  0.00    +0.000 N 
ATOM     22  C   UNL     1      -2.532   2.893  -2.692  0.00  0.00    +0.000 C 
ATOM     23  C   UNL     1      -1.478   3.901  -2.341  0.00  0.00    +0.000 C 
ATOM     24  C   UNL     1      -3.131   3.231  -4.070  0.00  0.00    +0.000 C 
ATOM     25  C   UNL     1      -4.383   2.404  -4.393  0.00  0.00    +0.000 C 
ATOM     26  C   UNL     1      -5.374   2.511  -3.243  0.00  0.00    +0.000 A 
ATOM     27  C   UNL     1      -6.745   2.365  -3.456  0.00  0.00    +0.000 A 
ATOM     28  C   UNL     1      -7.647   2.441  -2.402  0.00  0.00    +0.000 A 
ATOM     29  C   UNL     1      -7.189   2.657  -1.112  0.00  0.00    +0.000 A 
ATOM     30  C   UNL     1      -5.827   2.800  -0.879  0.00  0.00    +0.000 A 
ATOM     31  C   UNL     1      -4.923   2.734  -1.932  0.00  0.00    +0.000 A 
ENDBRANCH  18  21
ENDBRANCH   4  18
BRANCH   1  33
ATOM     32  C   UNL     1      -0.796  -3.529   0.000  0.00  0.00    +0.000 C 
ATOM     33  O   UNL     1      -0.005  -2.399   0.000  0.00  0.00    +0.000 OA
ENDBRANCH   1  33
BRANCH   3  34
ATOM     34  O   UNL     1      -4.160   0.000   0.000  0.00  0.00    +0.000 OA
ATOM     35  C   UNL     1      -4.743  -1.251   0.000  0.00  0.00    +0.000 C 
ENDBRANCH   3  34
TORSDOF 10
