MODEL 1
REMARK VINA RESULT:      -5.8      0.000      0.000
REMARK  Name = 
REMARK  4 active torsions:
REMARK  status: ('A' for Active; 'I' for Inactive)
REMARK    1  A    between atoms: C_1  and  N_2
REMARK    2  A    between atoms: C_3  and  C_4
REMARK    3  A    between atoms: C_4  and  N_5
REMARK    4  A    between atoms: N_8  and  C_11
REMARK                            x       y       z     vdW  Elec       q    Type
REMARK                         _______ _______ _______ _____ _____    ______ ____
ROOT
ATOM      1  N   UNL     1      -3.135   8.481  -3.693  0.00  0.00    +0.000 NA
ATOM      2  C   UNL     1      -4.126   7.851  -4.577  0.00  0.00    +0.000 C 
ATOM      3  C   UNL     1      -3.622   6.476  -5.092  0.00  0.00    +0.000 C 
ATOM      4  N   UNL     1      -3.341   5.563  -3.974  0.00  0.00    +0.000 N 
ATOM      5  C   UNL     1      -2.349   6.193  -3.091  0.00  0.00    +0.000 C 
ATOM      6  C   UNL     1      -2.853   7.569  -2.576  0.00  0.00    +0.000 C 
ENDROOT
BRANCH   4   7
ATOM      7  C   UNL     1      -2.803   4.309  -4.495  0.00  0.00    +0.000 A 
ATOM      8  C   UNL     1      -1.890   4.329  -5.546  0.00  0.00    +0.000 A 
ATOM      9  C   UNL     1      -1.371   3.140  -6.049  0.00  0.00    +0.000 A 
ATOM     10  C   UNL     1      -1.772   1.930  -5.492  0.00  0.00    +0.000 A 
ATOM     11 CL   UNL     1      -1.136   0.447  -6.106  0.00  0.00    +0.000 Cl
ATOM     12  C   UNL     1      -2.684   1.911  -4.441  0.00  0.00    +0.000 A 
ATOM     13  C   UNL     1      -3.205   3.099  -3.936  0.00  0.00    +0.000 A 
ENDBRANCH   4   7
BRANCH   1  14
ATOM     14  C   UNL     1      -3.672   9.736  -3.174  0.00  0.00    +0.000 C 
BRANCH  14  17
ATOM     15  C   UNL     1      -5.002  11.890  -4.653  0.00  0.00    +0.000 C 
ATOM     16  N   UNL     1      -3.558  11.879  -4.437  0.00  0.00    +0.000 N 
ATOM     17  C   UNL     1      -2.902  10.887  -3.750  0.00  0.00    +0.000 A 
ATOM     18  N   UNL     1      -1.606  11.079  -3.677  0.00  0.00    +0.000 NA
ATOM     19  C   UNL     1      -1.394  12.258  -4.350  0.00  0.00    +0.000 A 
ATOM     20  C   UNL     1      -0.198  12.944  -4.587  0.00  0.00    +0.000 A 
ATOM     21  C   UNL     1      -0.244  14.140  -5.308  0.00  0.00    +0.000 A 
ATOM     22  C   UNL     1      -1.452  14.646  -5.784  0.00  0.00    +0.000 A 
ATOM     23  C   UNL     1      -2.664  13.984  -5.565  0.00  0.00    +0.000 A 
ATOM     24  C   UNL     1      -2.611  12.790  -4.844  0.00  0.00    +0.000 A 
ENDBRANCH  14  17
ENDBRANCH   1  14
TORSDOF 3
ENDMDL
MODEL 2
REMARK VINA RESULT:      -5.5      8.054     11.443
REMARK  Name = 
REMARK  4 active torsions:
REMARK  status: ('A' for Active; 'I' for Inactive)
REMARK    1  A    between atoms: C_1  and  N_2
REMARK    2  A    between atoms: C_3  and  C_4
REMARK    3  A    between atoms: C_4  and  N_5
REMARK    4  A    between atoms: N_8  and  C_11
REMARK                            x       y       z     vdW  Elec       q    Type
REMARK                         _______ _______ _______ _____ _____    ______ ____
ROOT
ATOM      1  N   UNL     1       2.812   0.796  -1.239  0.00  0.00    +0.000 NA
ATOM      2  C   UNL     1       3.755   0.203  -2.197  0.00  0.00    +0.000 C 
ATOM      3  C   UNL     1       5.200   0.716  -1.951  0.00  0.00    +0.000 C 
ATOM      4  N   UNL     1       5.650   0.396  -0.588  0.00  0.00    +0.000 N 
ATOM      5  C   UNL     1       4.706   0.990   0.370  0.00  0.00    +0.000 C 
ATOM      6  C   UNL     1       3.261   0.476   0.123  0.00  0.00    +0.000 C 
ENDROOT
BRANCH   4   7
ATOM      7  C   UNL     1       6.981   0.957  -0.372  0.00  0.00    +0.000 A 
ATOM      8  C   UNL     1       7.996   0.154   0.145  0.00  0.00    +0.000 A 
ATOM      9  C   UNL     1       9.268   0.678   0.354  0.00  0.00    +0.000 A 
ATOM     10  C   UNL     1       9.517   2.011   0.043  0.00  0.00    +0.000 A 
ATOM     11 CL   UNL     1      11.091   2.673   0.299  0.00  0.00    +0.000 Cl
ATOM     12  C   UNL     1       8.503   2.811  -0.473  0.00  0.00    +0.000 A 
ATOM     13  C   UNL     1       7.229   2.290  -0.683  0.00  0.00    +0.000 A 
ENDBRANCH   4   7
BRANCH   1  14
ATOM     14  C   UNL     1       1.480   0.236  -1.457  0.00  0.00    +0.000 C 
BRANCH  14  17
ATOM     15  C   UNL     1       0.873  -1.128  -3.981  0.00  0.00    +0.000 C 
ATOM     16  N   UNL     1       0.548   0.279  -3.766  0.00  0.00    +0.000 N 
ATOM     17  C   UNL     1       0.818   0.950  -2.598  0.00  0.00    +0.000 A 
ATOM     18  N   UNL     1       0.440   2.206  -2.624  0.00  0.00    +0.000 NA
ATOM     19  C   UNL     1      -0.107   2.376  -3.873  0.00  0.00    +0.000 A 
ATOM     20  C   UNL     1      -0.670   3.519  -4.450  0.00  0.00    +0.000 A 
ATOM     21  C   UNL     1      -1.166   3.436  -5.754  0.00  0.00    +0.000 A 
ATOM     22  C   UNL     1      -1.103   2.243  -6.472  0.00  0.00    +0.000 A 
ATOM     23  C   UNL     1      -0.546   1.083  -5.924  0.00  0.00    +0.000 A 
ATOM     24  C   UNL     1      -0.054   1.173  -4.621  0.00  0.00    +0.000 A 
ENDBRANCH  14  17
ENDBRANCH   1  14
TORSDOF 3
ENDMDL
MODEL 3
REMARK VINA RESULT:      -5.4      9.319     12.048
REMARK  Name = 
REMARK  4 active torsions:
REMARK  status: ('A' for Active; 'I' for Inactive)
REMARK    1  A    between atoms: C_1  and  N_2
REMARK    2  A    between atoms: C_3  and  C_4
REMARK    3  A    between atoms: C_4  and  N_5
REMARK    4  A    between atoms: N_8  and  C_11
REMARK                            x       y       z     vdW  Elec       q    Type
REMARK                         _______ _______ _______ _____ _____    ______ ____
ROOT
ATOM      1  N   UNL     1       3.590   1.026  -1.486  0.00  0.00    +0.000 NA
ATOM      2  C   UNL     1       4.715   0.231  -1.999  0.00  0.00    +0.000 C 
ATOM      3  C   UNL     1       5.992   1.101  -2.149  0.00  0.00    +0.000 C 
ATOM      4  N   UNL     1       6.383   1.694  -0.862  0.00  0.00    +0.000 N 
ATOM      5  C   UNL     1       5.258   2.489  -0.350  0.00  0.00    +0.000 C 
ATOM      6  C   UNL     1       3.981   1.618  -0.199  0.00  0.00    +0.000 C 
ENDROOT
BRANCH   4   7
ATOM      7  C   UNL     1       7.543   2.560  -1.058  0.00  0.00    +0.000 A 
ATOM      8  C   UNL     1       8.665   2.410  -0.247  0.00  0.00    +0.000 A 
ATOM      9  C   UNL     1       9.775   3.230  -0.426  0.00  0.00    +0.000 A 
ATOM     10  C   UNL     1       9.755   4.199  -1.423  0.00  0.00    +0.000 A 
ATOM     11 CL   UNL     1      11.126   5.223  -1.656  0.00  0.00    +0.000 Cl
ATOM     12  C   UNL     1       8.633   4.347  -2.233  0.00  0.00    +0.000 A 
ATOM     13  C   UNL     1       7.521   3.529  -2.057  0.00  0.00    +0.000 A 
ENDBRANCH   4   7
BRANCH   1  14
ATOM     14  C   UNL     1       2.430   0.160  -1.291  0.00  0.00    +0.000 C 
BRANCH  14  17
ATOM     15  C   UNL     1      -0.177  -1.181  -1.351  0.00  0.00    +0.000 C 
ATOM     16  N   UNL     1       0.289  -0.350  -2.456  0.00  0.00    +0.000 N 
ATOM     17  C   UNL     1       1.503   0.293  -2.463  0.00  0.00    +0.000 A 
ATOM     18  N   UNL     1       1.716   0.985  -3.557  0.00  0.00    +0.000 NA
ATOM     19  C   UNL     1       0.585   0.790  -4.313  0.00  0.00    +0.000 A 
ATOM     20  C   UNL     1       0.264   1.292  -5.579  0.00  0.00    +0.000 A 
ATOM     21  C   UNL     1      -0.965   0.945  -6.145  0.00  0.00    +0.000 A 
ATOM     22  C   UNL     1      -1.858   0.116  -5.469  0.00  0.00    +0.000 A 
ATOM     23  C   UNL     1      -1.568  -0.402  -4.204  0.00  0.00    +0.000 A 
ATOM     24  C   UNL     1      -0.338  -0.051  -3.644  0.00  0.00    +0.000 A 
ENDBRANCH  14  17
ENDBRANCH   1  14
TORSDOF 3
ENDMDL
MODEL 4
REMARK VINA RESULT:      -5.4      3.605      8.786
REMARK  Name = 
REMARK  4 active torsions:
REMARK  status: ('A' for Active; 'I' for Inactive)
REMARK    1  A    between atoms: C_1  and  N_2
REMARK    2  A    between atoms: C_3  and  C_4
REMARK    3  A    between atoms: C_4  and  N_5
REMARK    4  A    between atoms: N_8  and  C_11
REMARK                            x       y       z     vdW  Elec       q    Type
REMARK                         _______ _______ _______ _____ _____    ______ ____
ROOT
ATOM      1  N   UNL     1      -2.762   7.235  -3.212  0.00  0.00    +0.000 NA
ATOM      2  C   UNL     1      -2.104   8.429  -2.663  0.00  0.00    +0.000 C 
ATOM      3  C   UNL     1      -2.579   9.714  -3.393  0.00  0.00    +0.000 C 
ATOM      4  N   UNL     1      -4.035   9.883  -3.275  0.00  0.00    +0.000 N 
ATOM      5  C   UNL     1      -4.693   8.689  -3.824  0.00  0.00    +0.000 C 
ATOM      6  C   UNL     1      -4.218   7.403  -3.094  0.00  0.00    +0.000 C 
ENDROOT
BRANCH   4   7
ATOM      7  C   UNL     1      -4.451  11.060  -4.033  0.00  0.00    +0.000 A 
ATOM      8  C   UNL     1      -5.774  11.184  -4.450  0.00  0.00    +0.000 A 
ATOM      9  C   UNL     1      -6.181  12.302  -5.173  0.00  0.00    +0.000 A 
ATOM     10  C   UNL     1      -5.255  13.295  -5.473  0.00  0.00    +0.000 A 
ATOM     11 CL   UNL     1      -5.746  14.687  -6.368  0.00  0.00    +0.000 Cl
ATOM     12  C   UNL     1      -3.933  13.170  -5.055  0.00  0.00    +0.000 A 
ATOM     13  C   UNL     1      -3.523  12.053  -4.333  0.00  0.00    +0.000 A 
ENDBRANCH   4   7
BRANCH   1  14
ATOM     14  C   UNL     1      -2.345   6.057  -2.454  0.00  0.00    +0.000 C 
BRANCH  14  17
ATOM     15  C   UNL     1      -0.291   4.108  -1.697  0.00  0.00    +0.000 C 
ATOM     16  N   UNL     1      -0.922   4.092  -3.013  0.00  0.00    +0.000 N 
ATOM     17  C   UNL     1      -1.886   4.989  -3.402  0.00  0.00    +0.000 A 
ATOM     18  N   UNL     1      -2.313   4.790  -4.626  0.00  0.00    +0.000 NA
ATOM     19  C   UNL     1      -1.595   3.707  -5.071  0.00  0.00    +0.000 A 
ATOM     20  C   UNL     1      -1.639   3.056  -6.309  0.00  0.00    +0.000 A 
ATOM     21  C   UNL     1      -0.797   1.962  -6.521  0.00  0.00    +0.000 A 
ATOM     22  C   UNL     1       0.072   1.520  -5.524  0.00  0.00    +0.000 A 
ATOM     23  C   UNL     1       0.140   2.147  -4.276  0.00  0.00    +0.000 A 
ATOM     24  C   UNL     1      -0.704   3.241  -4.072  0.00  0.00    +0.000 A 
ENDBRANCH  14  17
ENDBRANCH   1  14
TORSDOF 3
ENDMDL
MODEL 5
REMARK VINA RESULT:      -5.3      4.518     11.141
REMARK  Name = 
REMARK  4 active torsions:
REMARK  status: ('A' for Active; 'I' for Inactive)
REMARK    1  A    between atoms: C_1  and  N_2
REMARK    2  A    between atoms: C_3  and  C_4
REMARK    3  A    between atoms: C_4  and  N_5
REMARK    4  A    between atoms: N_8  and  C_11
REMARK                            x       y       z     vdW  Elec       q    Type
REMARK                         _______ _______ _______ _____ _____    ______ ____
ROOT
ATOM      1  N   UNL     1      -2.035   1.466  -4.739  0.00  0.00    +0.000 NA
ATOM      2  C   UNL     1      -1.319   2.423  -5.596  0.00  0.00    +0.000 C 
ATOM      3  C   UNL     1      -1.934   3.844  -5.483  0.00  0.00    +0.000 C 
ATOM      4  N   UNL     1      -1.891   4.331  -4.097  0.00  0.00    +0.000 N 
ATOM      5  C   UNL     1      -2.606   3.375  -3.240  0.00  0.00    +0.000 C 
ATOM      6  C   UNL     1      -1.991   1.954  -3.353  0.00  0.00    +0.000 C 
ENDROOT
BRANCH   4   7
ATOM      7  C   UNL     1      -2.541   5.636  -4.020  0.00  0.00    +0.000 A 
ATOM      8  C   UNL     1      -3.381   6.055  -5.049  0.00  0.00    +0.000 A 
ATOM      9  C   UNL     1      -4.006   7.296  -4.986  0.00  0.00    +0.000 A 
ATOM     10  C   UNL     1      -3.785   8.116  -3.883  0.00  0.00    +0.000 A 
ATOM     11 CL   UNL     1      -4.555   9.659  -3.792  0.00  0.00    +0.000 Cl
ATOM     12  C   UNL     1      -2.946   7.697  -2.856  0.00  0.00    +0.000 A 
ATOM     13  C   UNL     1      -2.319   6.455  -2.917  0.00  0.00    +0.000 A 
ENDBRANCH   4   7
BRANCH   1  14
ATOM     14  C   UNL     1      -1.384   0.161  -4.817  0.00  0.00    +0.000 C 
BRANCH  14  17
ATOM     15  C   UNL     1      -0.723  -2.095  -3.066  0.00  0.00    +0.000 C 
ATOM     16  N   UNL     1      -2.038  -1.957  -3.683  0.00  0.00    +0.000 N 
ATOM     17  C   UNL     1      -2.383  -0.915  -4.508  0.00  0.00    +0.000 A 
ATOM     18  N   UNL     1      -3.615  -0.992  -4.951  0.00  0.00    +0.000 NA
ATOM     19  C   UNL     1      -4.112  -2.144  -4.390  0.00  0.00    +0.000 A 
ATOM     20  C   UNL     1      -5.380  -2.721  -4.518  0.00  0.00    +0.000 A 
ATOM     21  C   UNL     1      -5.645  -3.913  -3.838  0.00  0.00    +0.000 A 
ATOM     22  C   UNL     1      -4.671  -4.520  -3.048  0.00  0.00    +0.000 A 
ATOM     23  C   UNL     1      -3.395  -3.970  -2.900  0.00  0.00    +0.000 A 
ATOM     24  C   UNL     1      -3.137  -2.779  -3.581  0.00  0.00    +0.000 A 
ENDBRANCH  14  17
ENDBRANCH   1  14
TORSDOF 3
ENDMDL
MODEL 6
REMARK VINA RESULT:      -5.2     13.350     14.801
REMARK  Name = 
REMARK  4 active torsions:
REMARK  status: ('A' for Active; 'I' for Inactive)
REMARK    1  A    between atoms: C_1  and  N_2
REMARK    2  A    between atoms: C_3  and  C_4
REMARK    3  A    between atoms: C_4  and  N_5
REMARK    4  A    between atoms: N_8  and  C_11
REMARK                            x       y       z     vdW  Elec       q    Type
REMARK                         _______ _______ _______ _____ _____    ______ ____
ROOT
ATOM      1  N   UNL     1      10.942   1.958   0.131  0.00  0.00    +0.000 NA
ATOM      2  C   UNL     1       9.620   1.796   0.751  0.00  0.00    +0.000 C 
ATOM      3  C   UNL     1       9.194   0.302   0.776  0.00  0.00    +0.000 C 
ATOM      4  N   UNL     1      10.165  -0.512   1.520  0.00  0.00    +0.000 N 
ATOM      5  C   UNL     1      11.488  -0.350   0.900  0.00  0.00    +0.000 C 
ATOM      6  C   UNL     1      11.914   1.144   0.875  0.00  0.00    +0.000 C 
ENDROOT
BRANCH   4   7
ATOM      7  C   UNL     1       9.769  -1.917   1.461  0.00  0.00    +0.000 A 
ATOM      8  C   UNL     1      10.716  -2.893   1.162  0.00  0.00    +0.000 A 
ATOM      9  C   UNL     1      10.349  -4.234   1.103  0.00  0.00    +0.000 A 
ATOM     10  C   UNL     1       9.027  -4.591   1.346  0.00  0.00    +0.000 A 
ATOM     11 CL   UNL     1       8.558  -6.251   1.276  0.00  0.00    +0.000 Cl
ATOM     12  C   UNL     1       8.081  -3.615   1.645  0.00  0.00    +0.000 A 
ATOM     13  C   UNL     1       8.445  -2.272   1.704  0.00  0.00    +0.000 A 
ENDBRANCH   4   7
BRANCH   1  14
ATOM     14  C   UNL     1      11.338   3.363   0.190  0.00  0.00    +0.000 C 
BRANCH  14  17
ATOM     15  C   UNL     1       9.735   5.658   1.061  0.00  0.00    +0.000 C 
ATOM     16  N   UNL     1       9.772   5.227  -0.333  0.00  0.00    +0.000 N 
ATOM     17  C   UNL     1      10.511   4.157  -0.777  0.00  0.00    +0.000 A 
ATOM     18  N   UNL     1      10.396   3.949  -2.067  0.00  0.00    +0.000 NA
ATOM     19  C   UNL     1       9.537   4.930  -2.500  0.00  0.00    +0.000 A 
ATOM     20  C   UNL     1       9.058   5.189  -3.789  0.00  0.00    +0.000 A 
ATOM     21  C   UNL     1       8.182   6.261  -3.975  0.00  0.00    +0.000 A 
ATOM     22  C   UNL     1       7.788   7.061  -2.904  0.00  0.00    +0.000 A 
ATOM     23  C   UNL     1       8.248   6.829  -1.604  0.00  0.00    +0.000 A 
ATOM     24  C   UNL     1       9.124   5.757  -1.425  0.00  0.00    +0.000 A 
ENDBRANCH  14  17
ENDBRANCH   1  14
TORSDOF 3
ENDMDL
MODEL 7
REMARK VINA RESULT:      -5.2      6.153      7.104
REMARK  Name = 
REMARK  4 active torsions:
REMARK  status: ('A' for Active; 'I' for Inactive)
REMARK    1  A    between atoms: C_1  and  N_2
REMARK    2  A    between atoms: C_3  and  C_4
REMARK    3  A    between atoms: C_4  and  N_5
REMARK    4  A    between atoms: N_8  and  C_11
REMARK                            x       y       z     vdW  Elec       q    Type
REMARK                         _______ _______ _______ _____ _____    ______ ____
ROOT
ATOM      1  N   UNL     1       2.560   9.923  -1.786  0.00  0.00    +0.000 NA
ATOM      2  C   UNL     1       2.300   8.501  -1.518  0.00  0.00    +0.000 C 
ATOM      3  C   UNL     1       3.453   7.611  -2.055  0.00  0.00    +0.000 C 
ATOM      4  N   UNL     1       4.736   7.978  -1.440  0.00  0.00    +0.000 N 
ATOM      5  C   UNL     1       4.996   9.399  -1.708  0.00  0.00    +0.000 C 
ATOM      6  C   UNL     1       3.844  10.290  -1.170  0.00  0.00    +0.000 C 
ENDROOT
BRANCH   4   7
ATOM      7  C   UNL     1       5.803   7.169  -2.022  0.00  0.00    +0.000 A 
ATOM      8  C   UNL     1       6.012   5.867  -1.571  0.00  0.00    +0.000 A 
ATOM      9  C   UNL     1       7.026   5.088  -2.120  0.00  0.00    +0.000 A 
ATOM     10  C   UNL     1       7.829   5.619  -3.124  0.00  0.00    +0.000 A 
ATOM     11 CL   UNL     1       9.090   4.663  -3.812  0.00  0.00    +0.000 Cl
ATOM     12  C   UNL     1       7.619   6.919  -3.574  0.00  0.00    +0.000 A 
ATOM     13  C   UNL     1       6.606   7.702  -3.027  0.00  0.00    +0.000 A 
ENDBRANCH   4   7
BRANCH   1  14
ATOM     14  C   UNL     1       1.492  10.732  -1.204  0.00  0.00    +0.000 C 
BRANCH  14  17
ATOM     15  C   UNL     1      -1.287   9.993  -1.774  0.00  0.00    +0.000 C 
ATOM     16  N   UNL     1      -0.589  11.021  -2.540  0.00  0.00    +0.000 N 
ATOM     17  C   UNL     1       0.711  11.393  -2.301  0.00  0.00    +0.000 A 
ATOM     18  N   UNL     1       1.136  12.335  -3.108  0.00  0.00    +0.000 NA
ATOM     19  C   UNL     1       0.062  12.601  -3.923  0.00  0.00    +0.000 A 
ATOM     20  C   UNL     1      -0.054  13.521  -4.971  0.00  0.00    +0.000 A 
ATOM     21  C   UNL     1      -1.267  13.604  -5.658  0.00  0.00    +0.000 A 
ATOM     22  C   UNL     1      -2.346  12.792  -5.312  0.00  0.00    +0.000 A 
ATOM     23  C   UNL     1      -2.263  11.863  -4.271  0.00  0.00    +0.000 A 
ATOM     24  C   UNL     1      -1.047  11.785  -3.589  0.00  0.00    +0.000 A 
ENDBRANCH  14  17
ENDBRANCH   1  14
TORSDOF 3
ENDMDL
MODEL 8
REMARK VINA RESULT:      -5.1     11.643     13.675
REMARK  Name = 
REMARK  4 active torsions:
REMARK  status: ('A' for Active; 'I' for Inactive)
REMARK    1  A    between atoms: C_1  and  N_2
REMARK    2  A    between atoms: C_3  and  C_4
REMARK    3  A    between atoms: C_4  and  N_5
REMARK    4  A    between atoms: N_8  and  C_11
REMARK                            x       y       z     vdW  Elec       q    Type
REMARK                         _______ _______ _______ _____ _____    ______ ____
ROOT
ATOM      1  N   UNL     1       8.131   5.315  -2.475  0.00  0.00    +0.000 NA
ATOM      2  C   UNL     1       6.849   4.806  -1.968  0.00  0.00    +0.000 C 
ATOM      3  C   UNL     1       5.919   5.970  -1.529  0.00  0.00    +0.000 C 
ATOM      4  N   UNL     1       5.652   6.885  -2.649  0.00  0.00    +0.000 N 
ATOM      5  C   UNL     1       6.934   7.393  -3.156  0.00  0.00    +0.000 C 
ATOM      6  C   UNL     1       7.863   6.229  -3.595  0.00  0.00    +0.000 C 
ENDROOT
BRANCH   4   7
ATOM      7  C   UNL     1       4.835   8.001  -2.180  0.00  0.00    +0.000 A 
ATOM      8  C   UNL     1       5.447   9.186  -1.776  0.00  0.00    +0.000 A 
ATOM      9  C   UNL     1       4.678  10.256  -1.328  0.00  0.00    +0.000 A 
ATOM     10  C   UNL     1       3.293  10.132  -1.289  0.00  0.00    +0.000 A 
ATOM     11 CL   UNL     1       2.328  11.452  -0.735  0.00  0.00    +0.000 Cl
ATOM     12  C   UNL     1       2.684   8.949  -1.693  0.00  0.00    +0.000 A 
ATOM     13  C   UNL     1       3.450   7.876  -2.141  0.00  0.00    +0.000 A 
ENDBRANCH   4   7
BRANCH   1  14
ATOM     14  C   UNL     1       8.947   4.198  -2.943  0.00  0.00    +0.000 C 
BRANCH  14  17
ATOM     15  C   UNL     1       9.677   2.939  -0.398  0.00  0.00    +0.000 C 
ATOM     16  N   UNL     1      10.637   3.714  -1.179  0.00  0.00    +0.000 N 
ATOM     17  C   UNL     1      10.330   4.317  -2.375  0.00  0.00    +0.000 A 
ATOM     18  N   UNL     1      11.344   4.961  -2.903  0.00  0.00    +0.000 NA
ATOM     19  C   UNL     1      12.373   4.774  -2.013  0.00  0.00    +0.000 A 
ATOM     20  C   UNL     1      13.692   5.239  -2.067  0.00  0.00    +0.000 A 
ATOM     21  C   UNL     1      14.562   4.910  -1.025  0.00  0.00    +0.000 A 
ATOM     22  C   UNL     1      14.132   4.135   0.052  0.00  0.00    +0.000 A 
ATOM     23  C   UNL     1      12.821   3.656   0.136  0.00  0.00    +0.000 A 
ATOM     24  C   UNL     1      11.958   3.988  -0.910  0.00  0.00    +0.000 A 
ENDBRANCH  14  17
ENDBRANCH   1  14
TORSDOF 3
ENDMDL
MODEL 9
REMARK VINA RESULT:      -5.0      4.737      7.859
REMARK  Name = 
REMARK  4 active torsions:
REMARK  status: ('A' for Active; 'I' for Inactive)
REMARK    1  A    between atoms: C_1  and  N_2
REMARK    2  A    between atoms: C_3  and  C_4
REMARK    3  A    between atoms: C_4  and  N_5
REMARK    4  A    between atoms: N_8  and  C_11
REMARK                            x       y       z     vdW  Elec       q    Type
REMARK                         _______ _______ _______ _____ _____    ______ ____
ROOT
ATOM      1  N   UNL     1      -1.736   1.051  -4.332  0.00  0.00    +0.000 NA
ATOM      2  C   UNL     1      -1.222   0.293  -3.183  0.00  0.00    +0.000 C 
ATOM      3  C   UNL     1      -2.143  -0.912  -2.850  0.00  0.00    +0.000 C 
ATOM      4  N   UNL     1      -2.260  -1.822  -3.998  0.00  0.00    +0.000 N 
ATOM      5  C   UNL     1      -2.774  -1.064  -5.148  0.00  0.00    +0.000 C 
ATOM      6  C   UNL     1      -1.853   0.141  -5.481  0.00  0.00    +0.000 C 
ENDROOT
BRANCH   4   7
ATOM      7  C   UNL     1      -3.188  -2.901  -3.671  0.00  0.00    +0.000 A 
ATOM      8  C   UNL     1      -4.509  -2.837  -4.110  0.00  0.00    +0.000 A 
ATOM      9  C   UNL     1      -5.402  -3.859  -3.805  0.00  0.00    +0.000 A 
ATOM     10  C   UNL     1      -4.963  -4.948  -3.058  0.00  0.00    +0.000 A 
ATOM     11 CL   UNL     1      -6.060  -6.224  -2.671  0.00  0.00    +0.000 Cl
ATOM     12  C   UNL     1      -3.644  -5.011  -2.620  0.00  0.00    +0.000 A 
ATOM     13  C   UNL     1      -2.748  -3.989  -2.924  0.00  0.00    +0.000 A 
ENDBRANCH   4   7
BRANCH   1  14
ATOM     14  C   UNL     1      -0.808   2.130  -4.658  0.00  0.00    +0.000 C 
BRANCH  14  17
ATOM     15  C   UNL     1      -0.465   3.820  -2.287  0.00  0.00    +0.000 C 
ATOM     16  N   UNL     1      -1.324   4.215  -3.399  0.00  0.00    +0.000 N 
ATOM     17  C   UNL     1      -1.508   3.450  -4.524  0.00  0.00    +0.000 A 
ATOM     18  N   UNL     1      -2.321   3.999  -5.395  0.00  0.00    +0.000 NA
ATOM     19  C   UNL     1      -2.695   5.188  -4.817  0.00  0.00    +0.000 A 
ATOM     20  C   UNL     1      -3.552   6.182  -5.301  0.00  0.00    +0.000 A 
ATOM     21  C   UNL     1      -3.775   7.315  -4.514  0.00  0.00    +0.000 A 
ATOM     22  C   UNL     1      -3.159   7.459  -3.272  0.00  0.00    +0.000 A 
ATOM     23  C   UNL     1      -2.298   6.484  -2.760  0.00  0.00    +0.000 A 
ATOM     24  C   UNL     1      -2.080   5.355  -3.551  0.00  0.00    +0.000 A 
ENDBRANCH  14  17
ENDBRANCH   1  14
TORSDOF 3
ENDMDL
