REMARK  Name = 
REMARK  4 active torsions:
REMARK  status: ('A' for Active; 'I' for Inactive)
REMARK    1  A    between atoms: C_1  and  N_2
REMARK    2  A    between atoms: C_3  and  C_4
REMARK    3  A    between atoms: C_4  and  N_5
REMARK    4  A    between atoms: N_8  and  C_11
REMARK                            x       y       z     vdW  Elec       q    Type
REMARK                         _______ _______ _______ _____ _____    ______ ____
ROOT
ATOM      1  N   UNL     1       1.987   0.000  -1.377  0.00  0.00    +0.000 NA
ATOM      2  C   UNL     1       1.517  -1.212  -2.063  0.00  0.00    +0.000 C 
ATOM      3  C   UNL     1       2.076  -1.288  -3.510  0.00  0.00    +0.000 C 
ATOM      4  N   UNL     1       3.546  -1.288  -3.510  0.00  0.00    +0.000 N 
ATOM      5  C   UNL     1       4.016  -0.076  -2.824  0.00  0.00    +0.000 C 
ATOM      6  C   UNL     1       3.457   0.000  -1.377  0.00  0.00    +0.000 C 
ENDROOT
BRANCH   4   7
ATOM      7  C   UNL     1       4.032  -1.288  -4.887  0.00  0.00    +0.000 A 
ATOM      8  C   UNL     1       3.677  -0.252  -5.748  0.00  0.00    +0.000 A 
ATOM      9  C   UNL     1       4.135  -0.242  -7.062  0.00  0.00    +0.000 A 
ATOM     10  C   UNL     1       4.952  -1.276  -7.508  0.00  0.00    +0.000 A 
ATOM     11 CL   UNL     1       5.527  -1.276  -9.136  0.00  0.00    +0.000 Cl
ATOM     12  C   UNL     1       5.306  -2.310  -6.647  0.00  0.00    +0.000 A 
ATOM     13  C   UNL     1       4.849  -2.323  -5.332  0.00  0.00    +0.000 A 
ENDBRANCH   4   7
BRANCH   1  14
ATOM     14  C   UNL     1       1.500   0.000   0.000  0.00  0.00    +0.000 C 
BRANCH  14  17
ATOM     15  C   UNL     1      -0.038   2.496   0.000  0.00  0.00    +0.000 C 
ATOM     16  N   UNL     1      -0.688   1.189   0.000  0.00  0.00    +0.000 N 
ATOM     17  C   UNL     1       0.000   0.000   0.000  0.00  0.00    +0.000 A 
ATOM     18  N   UNL     1      -0.785  -1.051   0.000  0.00  0.00    +0.000 NA
ATOM     19  C   UNL     1      -2.057  -0.532   0.000  0.00  0.00    +0.000 A 
ATOM     20  C   UNL     1      -3.289  -1.195   0.000  0.00  0.00    +0.000 A 
ATOM     21  C   UNL     1      -4.460  -0.433   0.000  0.00  0.00    +0.000 A 
ATOM     22  C   UNL     1      -4.410   0.960   0.000  0.00  0.00    +0.000 A 
ATOM     23  C   UNL     1      -3.196   1.653   0.000  0.00  0.00    +0.000 A 
ATOM     24  C   UNL     1      -2.030   0.885   0.000  0.00  0.00    +0.000 A 
ENDBRANCH  14  17
ENDBRANCH   1  14
TORSDOF 3
